15
water
O            0      0     1 
O            0      0     2 
O            0      0     3 
O            0      0     4 
O            0      0     5 
O            0      0     6 
O            0      0     7 
O            0      0     8 
O            0      0     9 
O            0      0     10 
O            0      0     11
O            0      0     12 
O            0      0     13
O            0      0     14
O            0      0     15

